# benzene opt
!RKS b3lyp def2-TZVP  opt
%pal                                                
  nprocs 4                                          
end                                                 
%moinp "benzene.gbw"
* xyz 0 1 
 C                 -0.86556146   -1.02636832    0.00119900
 C                  0.52959854   -1.02636832    0.00119900
 C                  1.22713654    0.18138268    0.00119900
 C                  0.52948254    1.38989168    0.00000000
 C                 -0.86534246    1.38981368   -0.00047900
 C                 -1.56294346    0.18160768    0.00051700
 H                 -1.41532046   -1.97868532    0.00164900
 H                  1.07910654   -1.97888132    0.00251400
 H                  2.32681654    0.18146268    0.00183300
 H                  1.07968254    2.34203468   -0.00005900
 H                 -1.41546446    2.34209468   -0.00143200
 H                 -2.66254746    0.18179068    0.00033700
 *

