%chk=Sm.chk
%mem=60GB
%nproc=24
#P PBE1PBE/genecp  EmpiricalDispersion=GD3   pop=(nbo6read) scf=xqc

Sm

-2 11 
Sm        0.011893   -0.061674   -2.151134
N        -1.392222   -1.159682   -3.792291
N         1.567900    0.666483   -3.817823
H         0.314356    2.869706   -2.486965
C        -0.267395   -1.504063   -0.032110
C        -1.367541   -0.558203    0.012914
C        -1.113284    0.879200   -0.161828
C         0.276816    1.391470   -0.032484
C         1.378090    0.404594    0.005675
C         1.097987   -1.026068   -0.084106
Si       -1.104539   -2.577893   -4.705436
C        -2.050933   -0.065687   -4.309961
Si        2.683477   -0.297329   -4.686625
C         0.894086    1.739753   -4.352155
Fe       -1.212218    1.857031   -4.719315
C         0.251401    2.767169   -3.567290
Sm       -0.020044   -0.013063    2.053827
H        -0.470659   -2.571903   -0.036649
H        -2.387293   -0.924233   -0.079896
H        -1.935485    1.558505    0.052187
H         2.395671    0.739693   -0.175668
H         1.920377   -1.730885    0.008035
C        -2.648933    0.983474   -3.514987
C        -2.205078    0.353145   -5.681905
C         0.557774    2.026748   -5.724853
H        -2.682743    0.992246   -2.428270
C        -3.207937    1.976648   -4.376377
H        -3.724771    2.874632   -4.058187
C        -2.941508    1.580800   -5.723755
H        -3.218980    2.126970   -6.618684
H        -1.800589   -0.176085   -6.537886
C        -0.394388    3.694617   -4.438749
H        -0.936487    4.578270   -4.123303
C        -0.197531    3.242578   -5.779735
H        -0.576797    3.716595   -6.678347
H         0.824458    1.402016   -6.570209
N        -1.526370    0.870507    3.707107
N         1.336601   -1.102537    3.709774
Si       -2.711762    0.020456    4.600149
C        -0.790319    1.917236    4.216651
Si        0.963094   -2.506957    4.611197
C         2.053605   -0.037917    4.211240
Fe        1.312537    1.929504    4.586460
C        -0.444353    2.221718    5.583487
C        -0.092113    2.890204    3.410563
C         2.226952    0.393701    5.576153
C         2.701552    0.967395    3.399894
H        -0.747065    1.635000    6.443765
C         0.376453    3.396120    5.610092
H         0.779481    3.869739    6.498592
C         0.600443    3.803752    4.259009
H         1.196580    4.641041    3.915297
H        -0.129104    2.961697    2.327789
H         1.796884   -0.101419    6.439871
C         3.023922    1.583999    5.598510
H         3.325419    2.130607    6.485419
C         3.309613    1.945165    4.245065
H         3.862961    2.815170    3.910629
H         2.735816    0.950198    2.314275
C         0.545938    2.809000    0.006107
C        -0.476734    3.776013   -0.198849
C         1.841442    3.326662    0.281275
C        -0.223380    5.137901   -0.110058
H        -1.478368    3.440325   -0.450476
C         2.081556    4.688734    0.366933
H         2.658468    2.636363    0.466857
C         1.055468    5.622771    0.177745
H        -1.043820    5.836404   -0.271440
H         3.090712    5.030532    0.594987
H         1.248280    6.690313    0.249310
H         0.417800   -2.285953    6.018216
H        -0.102763   -3.269598    3.849992
H         2.127781   -3.472465    4.817097
H        -3.054926   -1.237926    3.828941
H        -2.310379   -0.426804    6.002783
H        -4.021579    0.772034    4.820583
H         2.941112   -1.546754   -3.869460
H         2.241818   -0.763636   -6.070086
H         4.040164    0.354623   -4.934468
H        -0.463275   -2.384685   -6.076122
H        -0.163874   -3.462407   -3.913869
H        -2.349660   -3.411503   -5.001834

C H N Si    0
6-31g*
****
Fe   0 
SDD
****
Sm 0
S 5 1.00
70078.1710000 0.000097
10598.3840000 0.000730
2413.8660000 0.003523
677.4031000 0.010873
208.5073000 0.017824
S 1 1.00
39.3663000 1.0
S 1 1.00
27.9875000 1.0
S 1 1.00
14.3426000 1.0
S 1 1.00
3.6128000 1.0
S 1 1.00
1.8452000 1.0
S 1 1.00
0.6875000 1.0
S 1 1.00
0.3001000 1.0
S 1 1.00
0.0539000 1.0
S 1 1.00
0.0224000 1.0
P 6 1.00
3990.1950000 0.000033
1108.0621000 0.000205
385.8132000 0.000983
134.9763000 0.003882
28.6199000 0.064056
20.3175000 -0.022684
P 1 1.00
14.3899000 1.0
P 1 1.00
5.3093000 1.0
P 1 1.00
2.6908000 1.0
P 1 1.00
1.2202000 1.0
P 1 1.00
0.5726000 1.0
P 1 1.00
0.2467000 1.0
P 1 1.00
0.0800000 1.0
D 6 1.00
398.0154000 0.000433
115.5466000 0.003852
41.8937000 0.017324
20.7743000 0.005743
7.5304000 0.259983
4.0454000 0.431478
D 1 1.00
2.1012000 1.0
D 1 1.00
1.0105000 1.0
D 1 1.00
0.3475000 1.0
D 1 1.00
0.1083000 1.0
F 5 1.00
127.1863000 0.003050
45.9396000 0.031145
20.6234000 0.113624
9.3855000 0.240128
4.2790000 0.347652
F 1 1.00
1.8883000 1.0
F 1 1.00
0.7748000 1.0
F 1 1.00
0.2776000 1.0
G 4 1.00
20.6234000 0.016405
9.3855000 0.067551
4.2790000 0.145472
1.8883000 0.353223
G 1 1.00
0.7748000 1.0
G 1 1.00
0.2776000 1.0
****

Fe  0
SDD
Sm 0
ECP28MWB 5 28
H-Komponente
1
2 1.000000 0.000000
S-H
1
2 22.344471 572.985332
P-H
1
2 16.694590 272.359145
D-H
1
2 13.727705 115.293900
F-H
1
2 24.059092 -51.108392
G-H
1
2 20.197249 -25.421885

$NBO AONAO=W49 FNAO=W49 DMNAO=W49 SKIPBO file=SM $END




