%nproc=4
%mem=1GB
%chk=cas.chk
#p opt casscf(2,2)/3-21g geom=connectivity

Title Card Required

0 1
C    0.003654    2e-06    -1e-06
H    0.359747    -0.649215    -0.789895
H    -1.100131    -0.0007480000000000001    0.000144
H    0.35977800000000004    -0.359058    0.957324
H    0.35868099999999997    1.009007    -0.167567




