14
Frame 12:  Geometry 13, Bond Energy: -2.88693 Hartree
C -3.562782260812792 2.171649404739984 -3.247818159136939
H -3.109553832348412 2.635811629704461 -2.3601780539747
C -3.062909054264223 2.922007933805206 -4.491437167354974
O -1.759982662064955 3.300854284687045 -4.368626353861006
H -1.525148315020989 3.744329157321076 -5.210893567266996
O -3.726551806945102 3.144367568064407 -5.481848738891655
N -5.007528477665891 2.191941819200518 -3.104578928123982
H -5.327709763099212 3.111330539608449 -2.799288824256358
H -5.445935700959357 2.015738520850207 -4.012213210170957
C -3.058876386113213 0.7195430972075333 -3.328811079444088
H -3.445475071241435 0.2448856569784761 -4.242129043251701
H -1.963809882327097 0.7011510349024093 -3.357031926899664
S -3.650848388993509 -0.2061875433837787 -1.856563915900813
H -2.573206243397997 -1.023803446621856 -1.798115556570199
