77
Frame 3:  Geometry 4, Bond Energy: -19.40035 Hartree
C -1.229474309936839 -2.806232050675795 -0.07528599826440449
C -2.496657902434882 -3.459629434134943 -0.2349863796653395
C -3.459629434134943 -2.496657902434882 -0.2349863796653395
C -2.806232050675795 -1.229474309936839 -0.07528599826440449
N -1.44153624304083 -1.44153624304083 0.002982051412146619
H -2.623823872094374 -4.530390907701975 -0.3460808352388463
H -4.530390907701975 -2.623823872094374 -0.3460808352388463
C -1.229474309936839 2.806232050675795 0.07528599826440449
C -2.496657902434882 3.459629434134943 0.2349863796653395
C -3.459629434134943 2.496657902434882 0.2349863796653395
C -2.806232050675795 1.229474309936839 0.07528599826440449
N -1.44153624304083 1.44153624304083 -0.002982051412146619
H -2.623823872094374 4.530390907701975 0.3460808352388463
H -4.530390907701975 2.623823872094374 0.3460808352388463
C 2.806232050675795 -1.229474309936839 0.07528599826440449
C 3.459629434134943 -2.496657902434882 0.2349863796653395
C 2.496657902434882 -3.459629434134943 0.2349863796653395
C 1.229474309936839 -2.806232050675795 0.07528599826440449
N 1.44153624304083 -1.44153624304083 -0.002982051412146619
H 4.530390907701975 -2.623823872094374 0.3460808352388463
H 2.623823872094374 -4.530390907701975 0.3460808352388463
C 2.806232050675795 1.229474309936839 -0.07528599826440449
C 3.459629434134943 2.496657902434882 -0.2349863796653395
C 2.496657902434882 3.459629434134943 -0.2349863796653395
C 1.229474309936839 2.806232050675795 -0.07528599826440449
N 1.44153624304083 1.44153624304083 0.002982051412146619
H 4.530390907701975 2.623823872094374 -0.3460808352388463
H 2.623823872094374 4.530390907701975 -0.3460808352388463
C -3.466502064192597 0.0 0.0
C 0.0 -3.466502064192597 0.0
C 0.0 3.466502064192597 0.0
C 3.466502064192597 0.0 0.0
Au 0.0 0.0 0.0
C 0.0 -4.957955773132146 0.0
C 0.5562320308488141 -5.669446458867217 -1.074252304173557
C -0.5562320308488141 -5.669446458867217 1.074252304173557
C 0.5506958672956305 -7.06474625066713 -1.075289506627773
H 0.981909143718288 -5.12420284961827 -1.91751246183828
C -0.5506958672956305 -7.06474625066713 1.075289506627773
H -0.981909143718288 -5.12420284961827 1.91751246183828
C 0.0 -7.765696966948354 0.0
H 0.9772962436169155 -7.605440312293102 -1.920760926153649
H -0.9772962436169155 -7.605440312293102 1.920760926153649
H 0.0 -8.856138617881058 0.0
C 4.957955773132146 0.0 0.0
C 5.669446458867217 -0.5562320308488141 -1.074252304173557
C 5.669446458867217 0.5562320308488141 1.074252304173557
C 7.06474625066713 -0.5506958672956305 -1.075289506627773
H 5.12420284961827 -0.981909143718288 -1.91751246183828
C 7.06474625066713 0.5506958672956305 1.075289506627773
H 5.12420284961827 0.981909143718288 1.91751246183828
C 7.765696966948354 0.0 0.0
H 7.605440312293102 -0.9772962436169155 -1.920760926153649
H 7.605440312293102 0.9772962436169155 1.920760926153649
H 8.856138617881058 0.0 0.0
C 0.0 4.957955773132146 0.0
C -0.5562320308488141 5.669446458867217 -1.074252304173557
C 0.5562320308488141 5.669446458867217 1.074252304173557
C -0.5506958672956305 7.06474625066713 -1.075289506627773
H -0.981909143718288 5.12420284961827 -1.91751246183828
C 0.5506958672956305 7.06474625066713 1.075289506627773
H 0.981909143718288 5.12420284961827 1.91751246183828
C 0.0 7.765696966948354 0.0
H -0.9772962436169155 7.605440312293102 -1.920760926153649
H 0.9772962436169155 7.605440312293102 1.920760926153649
H 0.0 8.856138617881058 0.0
C -4.957955773132146 0.0 0.0
C -5.669446458867217 -0.5562320308488141 1.074252304173557
C -5.669446458867217 0.5562320308488141 -1.074252304173557
C -7.06474625066713 -0.5506958672956305 1.075289506627773
H -5.12420284961827 -0.981909143718288 1.91751246183828
C -7.06474625066713 0.5506958672956305 -1.075289506627773
H -5.12420284961827 0.981909143718288 -1.91751246183828
C -7.765696966948354 0.0 0.0
H -7.605440312293102 -0.9772962436169155 1.920760926153649
H -7.605440312293102 0.9772962436169155 -1.920760926153649
H -8.856138617881058 0.0 0.0
