%nprocshared=20
%mem=30GB
%chk=pt-n-n-nosolvent.chk
#p opt=(calcall,ts,noeigen) b3lyp geom=connectivity def2tzvp em=gd3bj

Title Card Required

0 1
 Pt                 0.17464700    0.01264200    0.11238400
 N                  0.08159100   -2.03649900    0.25567200
 H                 -0.30678800   -2.32895700    1.14975600
 H                 -0.52629900   -2.39406100   -0.47834400
 Cl                 2.41447200   -0.09267600   -0.46507700
 O                 -1.67628000    0.12257900    1.71560700
 H                 -2.30089000    0.10461900    0.95498000
 H                 -1.69134800    1.03322700    2.04232300
 Cl                -2.35954700   -0.10757800   -1.15058300
 N                  0.21110100    2.06562100   -0.05419500
 H                 -0.50287700    2.37795600   -0.70866000
 H                  0.02773800    2.51444000    0.84088100
 H                  0.99367500   -2.47408100    0.15226300
 H                  1.11198400    2.40059000   -0.38815900

 1 2 1.0 5 1.0 10 1.0
 2 3 1.0 4 1.0 13 1.0
 3
 4
 5
 6 7 1.0 8 1.0
 7
 8
 9
 10 11 1.0 12 1.0 14 1.0
 11
 12
 13
 14

