%nproc=24
%mem=30GB
%chk=pt-n-n.chk
#p opt=(calcall, ts, noeigen) b3lyp/def2tzvp em=gd3bj scrf=(smd,solvent=water) geom=connectivity

Title Card Required

0 1
 Pt                -2.38916250   -0.22167487    0.00000000
 N                 -2.38916250   -0.22167487    1.99000000
 H                 -1.91775762   -1.03817124    2.32333333
 H                 -1.91775834    0.59482192    2.32333333
 Cl                -3.52916250   -2.19621279    0.00000000
 O                 -0.43916250   -0.22167487    0.00000000
 H                 -0.11916250    0.68331145    0.01413322
 H                 -0.11916250   -0.66192831   -0.79080775
 Cl                -3.52916250    1.75286305    0.00000000
 N                 -2.38916250   -0.22167487   -1.99000000
 H                 -1.90835048    0.58931754   -2.32333333
 H                 -1.92722848   -1.04356650   -2.32333333
 H                 -3.33197154   -0.22167528    2.32333333
 H                 -3.33190854   -0.21077566   -2.32333333

 1 2 1.0 5 1.0 6 1.0 9 1.0 10 1.0
 2 3 1.0 4 1.0 13 1.0
 3
 4
 5
 6 7 1.0 8 1.0
 7
 8
 9
 10 11 1.0 12 1.0 14 1.0
 11
 12
 13
 14

