%nproc=24
%mem=30GB
%chk=pt-n-o.chk
#p opt=(calcall, ts, noeigen) b3lyp/def2tzvp em=gd3bj scrf=(smd,solvent=water) geom=connectivity

Title Card Required

0 1
 Pt                -2.38916250   -0.22167487    0.00000000
 Cl                -3.52916250   -2.19621279    0.00000000
 Cl                -3.52916250    1.75286305    0.00000000
 N                 -2.38916250   -0.22167487   -1.99000000
 H                 -1.90835048    0.58931754   -2.32333333
 H                 -1.92722848   -1.04356650   -2.32333333
 O                 -2.38916250   -0.22167487    1.95000000
 H                 -1.55202905    0.12242915    2.27000000
 H                 -3.10573205    0.33125196    2.27000000
 N                 -0.39916250   -0.22167487    0.00000000
 H                 -0.06582917   -1.06561202   -0.42030819
 H                 -0.06582917    0.56429128   -0.52071692
 H                 -0.06582917   -0.16370387    0.94102511
 H                 -3.33190854   -0.21077566   -2.32333333

 1 2 1.0 3 1.0 4 1.0 7 1.0 10 1.0
 2
 3
 4 5 1.0 6 1.0 14 1.0
 5
 6
 7 8 1.0 9 1.0
 8
 9
 10 11 1.0 12 1.0 13 1.0
 11
 12
 13
 14

