%nprocshared=24
%mem=30GB
%chk=pt-n-cl-h2o-sub-nh3.chk
#p opt=(calcall,ts,noeigen) b3lyp scrf=(smd,solvent=water)
geom=connectivity def2tzvp em=gd3bj

Title Card Required

0 1
 Pt                 0.42942457    0.04607353   -0.00967125
 N                  0.42942457    0.04607353    1.98032875
 H                  0.90082945   -0.77042284    2.31366208
 H                  0.90082873    0.86257032    2.31366208
 N                  0.14040566    2.26739103   -0.00967125
 H                  0.82031926    2.79314223   -0.52084948
 H                 -0.75588473    2.37393432   -0.44015012
 Cl                -0.71057543   -1.92846439   -0.00967125
 Cl                 0.42942457    0.04607353   -2.28967125
 O                  2.45857498    0.89622965   -0.00967125
 H                  2.53166685    1.85333874    0.00446197
 H                  2.88225219    0.55458552   -0.80047900
 H                 -0.51338447    0.04607312    2.31366208
 H                  0.09975705    2.60150119    0.93198585

 1 2 1.0 5 1.0 8 1.0 9 1.0 10 1.0
 2 3 1.0 4 1.0 13 1.0
 3
 4
 5 6 1.0 7 1.0 14 1.0
 6
 7
 8
 9
 10 11 1.0 12 1.0
 11
 12
 13
 14

