# SP Test

[No Title]

  0  1
C 0   -0.767315    1.036929   -0.405446
C 0    0.036990   -0.030284   -0.558938
C 0   -0.419363   -1.270858   -0.317992
C 0   -1.696331   -1.400291    0.057496
C 0   -2.519536   -0.348996    0.178493
C 0   -2.048627    0.890307   -0.025636
N 0   -2.350960   -2.440208    0.362615
C 0   -3.541346   -2.141595    0.682391
C 0   -3.725180   -0.813432    0.559195
C 0   -4.850302   -0.118800    0.826509
C 0   -5.396689    0.830964    0.015753
C 0   -6.430408    1.579360    0.482054
C 0   -6.924442    1.319186    1.702387
C 0   -6.423883    0.346743    2.465225
C 0   -5.393642   -0.394909    2.036704
O 0   -4.862675   -1.293149    2.916246
O 0   -7.063707    2.570568   -0.210108
C 0   -4.962260    1.009338   -1.281001
O 0   -5.403215    1.887299   -1.998113
O 0   -4.065453    0.150825   -1.873536
C 0   -3.908748    0.161795   -3.272894
H 0   -0.367952    2.049249   -0.586587
H 0    1.086511    0.114216   -0.865951
H 0    0.235289   -2.151329   -0.415253
H 0   -2.687912    1.776569    0.112622
H 0   -1.954717   -3.407818    0.360460
H 0   -4.248892   -2.925013    0.977099
H 0   -7.770044    1.914168    2.088156
H 0   -6.845113    0.174399    3.470202
H 0   -3.923400   -1.440672    2.726504
H 0   -7.791190    2.925361    0.325969
H 0   -3.427466    1.111117   -3.598735
H 0   -3.237401   -0.683498   -3.544451
H 0   -4.890854    0.009202   -3.773572


